@<TRIPOS>MOLECULE
ETH
    8     7     1     0     0
SMALL
bcc


@<TRIPOS>ATOM
      1 6         3.1080    0.6530   -8.5260 c3        1 ETH     -0.094100
      2 6         4.5970    0.6740   -8.1320 c3        1 ETH     -0.094100
      3 1         2.8150   -0.3490   -8.7610 hc        1 ETH      0.031700
      4 1         2.5170    1.0150   -7.7110 hc        1 ETH      0.031700
      5 1         2.9560    1.2780   -9.3810 hc        1 ETH      0.031700
      6 1         4.7480    0.0490   -7.2770 hc        1 ETH      0.031700
      7 1         5.1870    0.3120   -8.9470 hc        1 ETH      0.031700
      8 1         4.8900    1.6760   -7.8970 hc        1 ETH      0.031700
@<TRIPOS>BOND
     1    1    2 1
     2    1    3 1
     3    1    4 1
     4    1    5 1
     5    2    6 1
     6    2    7 1
     7    2    8 1
@<TRIPOS>SUBSTRUCTURE
     1 ETH         1 TEMP              0 ****  ****    0 ROOT